[General]
network = waterpipeline.WaterNetwork
sim-time-limit = 500s

*.numSensors = 5

*.sensor[*].reportInterval = 10s

*.leakGen.lambda = 0.02

*.gateway.mu = 1.0
*.gateway.queueLimit = 20